Project: test project
version: v1.0
third line.
new line.
another line.
